%NProcShared=2
%Mem=4096MB

%chk=rb3lyp-opt.chk

#p b3lyp/6-311G(d,p)
scf=(maxcycle=2048,cdiis,conver=8)
symmetry=(on,loose)
int=superfine
opt=tight

benz

0 1
C      -1.56952268       0.49114317       0.00000000 
C      -3.18147670       0.33650565      -0.00193454 
C       0.74047733       1.82482229       0.00000000 
C      -0.79952267       1.82482229       0.00000000 
H      -1.36952266       2.81209124       0.00000000 
H       1.31047732       2.81209123       0.00000000 
H      -4.31368530       0.44208905      -0.08290238 
H      -0.90952266      -0.40885683       0.00000000 
H       1.24047733       1.02482229       0.00000000 
H      -3.57340604      -0.49347152       0.08483692 

