%NProcShared=4
%Mem=8192MB

%chk=rb3lyp-opt.chk

#p b3lyp/6-311G(d,p)
scf=(maxcycle=2048,cdiis,conver=8)
symmetry=(on,loose)
int=superfine
opt=tight

benz

0 1
C    -1.569523     0.491143     0.000000
C    -0.799523    -0.842536     0.000000
C     0.740477    -0.842536     0.000000
C     1.510477     0.491143     0.000000
C     0.740477     1.824822     0.000000
C    -0.799523     1.824822     0.000000
H    -1.369523     2.812091     0.000000
H     1.310477     2.812091     0.000000
H     2.650477     0.491143     0.000000
H     1.310477    -1.829805     0.000000
H    -1.369523    -1.829805    -0.000000
H    -2.709523     0.491143    -0.000000

